TY  - JOUR
AU  - BERGLUND, I
AU  - SCHMITZ, M
AU  - LUNDQVIST, H
TI  - SEAWATER ADAPTABILITY IN BALTIC SALMON (SALMO-SALAR) - A BIMODAL SMOLTIFICATION PATTERN IN PREVIOUSLY MATURE MALES
T2  - CANADIAN JOURNAL OF FISHERIES AND AQUATIC SCIENCES
LA  - English
KW  - PRECOCIOUS SEXUAL-MATURATION
KW  - JUVENILE ATLANTIC SALMON
KW  - PLASMA-LEVELS
KW  - 5 ANDROGENS
KW  - MALE PARR
KW  - SMOLT
KW  - IMMATURE
KW  - GROWTH
KW  - 17-ALPHA-HYDROXY-20-BETA-DIHYDROPROGESTERONE
KW  - TEMPERATURE
AB  - In three years, maximum seawater adaptability in 2-yr-old Baltic salmon (Salmo salar) was found during a period of about 2 wk in late May - early June. At this time the previously mature males developed in one of two directions, One group (8-44%) developed a seawater adaptability comparable with that of immature fish whereas the other did not. Previously mature males that did not adapt to seawater had larger gonadosomatic indices than males with good performance in seawater. Individually tagged previously mature males and immature fish released into the river in spring had a total adult recapture rate of 1.6 and 11.6%, respectively. In both groups the recapture rate was highest for fish released about 2 wk before the time of optimal seawater adaptability. The effect of size on recapture rate was more pronounced among previously mature males than among immature fish, with a particularly low recapture rate of small previously mature males. It is suggested that previously mature male parr can either mature sexually again or complete smoltification in spring and that the probability for smoltification and seaward migration is affected by body size and the conditions for growth during the previous autumn-winter.
PU  - NATL RESEARCH COUNCIL CANADA
PI  - OTTAWA
PA  - RESEARCH JOURNALS, MONTREAL RD, OTTAWA ON K1A 0R6, CANADA
SN  - 0706-652X
J9  - CAN J FISH AQUAT SCI
JI  - Can. J. Fish. Aquat. Sci.
DA  - JUN
PY  - 1992
VL  - 49
IS  - 6
SP  - 1097
EP  - 1106
DO  - 10.1139/f92-121
WE  - Science Citation Index Expanded (SCI-EXPANDED)AN  - WOS:A1992HY49300002
N1  - Times Cited in Web of Science Core Collection:  39
Total Times Cited:  39
Cited Reference Count:  47
ER  -

TY  - JOUR
AU  - JANZEN, FJ
TI  - EXPERIMENTAL-EVIDENCE FOR THE EVOLUTIONARY SIGNIFICANCE OF TEMPERATURE-DEPENDENT SEX DETERMINATION
T2  - EVOLUTION
LA  - English
KW  - ADAPTATION
KW  - ANTIPREDATOR BEHAVIOR
KW  - CHELYDRA SERPENTINA
KW  - DIRECTIONAL SELECTION
KW  - DISRUPTIVE SELECTION
KW  - SELECTIVE PREDATION
KW  - SEX DETERMINATION
KW  - TEMPERATURE
KW  - TURTLES
KW  - TURTLES CHELYDRA-SERPENTINA
KW  - COMMON SNAPPING TURTLES
KW  - INCUBATION-TEMPERATURE
KW  - NATURAL-SELECTION
KW  - LOCOMOTOR PERFORMANCE
KW  - ADAPTIVE SIGNIFICANCE
KW  - PINE SNAKES
KW  - BODY SIZE
KW  - BEHAVIOR
KW  - REPTILES
AB  - The evolutionary significance of sex-determining mechanisms, particularly temperature-dependent sex de termination (TSD) in reptiles, has remained unresolved despite extensive theoretical work. To investigate the evolutionary significance of this unusual sex-determining mechanism, I incubated eggs of the common snapping turtle (Chelydra serpentina) at a male-producing temperature (26 degrees C), a female-producing temperature (30 degrees C), and an intermediate temperature that produced both sexes about equally (28 degrees C). Laboratory experiments indicated that two performance variables, but no morphological measurements, were significantly influenced by incubation temperature (P less than or equal to 0.05): hatchlings from cooler incubation treatments swam faster than turtles from warmer incubation treatments, and hatchlings from 28 degrees C exhibited a greater propensity to run than did individuals from 26 degrees C and 30 degrees C. In the field, hatchlings from the all-male and all-female producing temperatures had significantly higher first-year survivorship than did consexuals from the incubation temperature that produced both sexes (G = 6.622, P = 0.03). Significant directional selection was detected on propensity of hatchlings to run (beta' = -0.758, P = 0.05): turtles that tended to remain immobile had a higher probability of first-year survivorship than did individuals that moved readily. Thus, the effects of the gender x incubation temperature interaction on survivorship of hatchling turtles observed in the field experiment may have been mediated by temperature-dependent antipredator behavior. These results provide a possible functional explanation for the evolutionary significance of TSD in turtles that is consistent with predictions of theoretical models.
AD  - UNIV CHICAGO,DEPT ECOL & EVOLUT,CHICAGO,IL 60637PU  - SOC STUDY EVOLUTION
PI  - LAWRENCE
PA  - 810 E 10TH STREET, LAWRENCE, KS 66044
SN  - 0014-3820
J9  - EVOLUTION
JI  - Evolution
DA  - OCT
PY  - 1995
VL  - 49
IS  - 5
SP  - 864
EP  - 873
DO  - 10.2307/2410409
WE  - Science Citation Index Expanded (SCI-EXPANDED)AN  - WOS:A1995TE99000008
N1  - Times Cited in Web of Science Core Collection:  112
Total Times Cited:  115
Cited Reference Count:  72
ER  -

TY  - JOUR
AU  - Aguirre, WE
AU  - Young, A
AU  - Navarrete-Amaya, R
AU  - Valdiviezo-Rivera, J
AU  - Jimenez-Prado, P
AU  - Cucalon, RV
AU  - Nugra-Salazar, F
AU  - Calle-Delgado, P
AU  - Borders, T
AU  - Shervette, VR
TI  - Vertebral number covaries with body form and elevation along the western slopes of the Ecuadorian Andes in the Neotropical fish genus Rhoadsia (Teleostei: Characidae)
T2  - BIOLOGICAL JOURNAL OF THE LINNEAN SOCIETY
LA  - English
KW  - adaptive evolution
KW  - axial skeleton
KW  - fineness ratio
KW  - phenotypic integration
KW  - pleomerism
KW  - temperature
KW  - THREESPINE STICKLEBACK
KW  - LATITUDINAL VARIATION
KW  - GASTEROSTEUS-ACULEATUS
KW  - ADAPTIVE RADIATION
KW  - GENETIC-BASIS
KW  - JORDANS RULE
KW  - EVOLUTION
KW  - DIVERSIFICATION
KW  - TEMPERATURE
KW  - POPULATION
AB  - Vertebral number is adaptively important in fishes and is associated with body shape at broad taxonomic ranks. Less is known about this association within species. Rhoadsia is a deep-bodied characid genus endemic to western Ecuador and northwestern Peru. It includes two species differing in body depth (BD), described from different drainages and elevations. Recently, BD has been found to vary with elevation in parallel between similar to 30 and 1260 m across drainages in western Ecuador. Here, we report that vertebral number also covaries with elevation and with body shape. The latter association was present both across and within sites, suggesting that these traits are phenotypically integrated. The ratio of precaudal to caudal vertebrae also differed significantly among drainages, and variation in vertebral number appeared to be associated primarily with the caudal vertebrae, raising questions about its potential adaptive significance given the functional importance of caudal vertebrae in fishes. Vertebral number was associated with body size at some sites, consistent with geographically localized pleomerism. Disentangling the causative mechanisms at play will probably be complex and represents an important future research direction. This is one of the first known cases of an association between vertebral number and elevation in fishes.
AD  - DePaul Univ, Dept Biol Sci, Chicago, IL 60614 USAAD  - Compania Consultora Asambla, Ave 9 Octubre 2009 & Los Rios,Edificio El Marques, Guayaquil, EcuadorAD  - Inst Nacl Biodiversidad, Calle Rumipamba 341 Ave Shyris,Parque La Carolina, Quito, EcuadorAD  - Pontificia Univ Catolica Ecuador Sede Esmeraldas, Escuela Gest Ambiental, Esmeraldas 08010065, EcuadorAD  - Univ Azuay, Lab Zool Vertebrados, Ave 24 Mayo 7-77 & Hernan Malo, Cuenca, EcuadorAD  - Escuela Super Politecn Litoral, Fac Ciencias Vida, Kilometro 30-5 Via Perimetral,Casilla 09-01-586, Guayaquil, EcuadorAD  - Univ South Carolina, Dept Biol & Geol, 471 Univ Pkwy, Aiken, SC 29801 USAFU  - College of Science and Health; University Research Council at DePaul University
FX  - 1 Caleb McMahan, Kevin Swagel and Susan Mochel at the Field Museum of Natural History provided access to specimens helped with radiography of the fish. Grace Malato helped with field collections. Comments from three anonymous reviewers significantly improved the manuscript. Sampling was conducted in accordance with the guidelines for the ethical use of vertebrates in research and approved by the DePaul institutional animal care and use committee. Field collections were conducted under research permits 015-IC-FAN-DPEO-MAE, 013-14 IC-FAU-DNB/MA and MAE-DNB-CM-2016-0045 from the Ministerio de Ambiente del Ecuador. The College of Science and Health and the University Research Council at DePaul University provided funding.
PU  - OXFORD UNIV PRESS
PI  - OXFORD
PA  - GREAT CLARENDON ST, OXFORD OX2 6DP, ENGLAND
SN  - 0024-4066
SN  - 1095-8312
J9  - BIOL J LINN SOC
JI  - Biol. J. Linnean Soc.
DA  - APR
PY  - 2019
VL  - 126
IS  - 4
SP  - 706
EP  - 720
DO  - 10.1093/biolinnean/blz002
WE  - Science Citation Index Expanded (SCI-EXPANDED)AN  - WOS:000480663600006
N1  - Times Cited in Web of Science Core Collection:  6
Total Times Cited:  6
Cited Reference Count:  87
ER  -

TY  - JOUR
AU  - Yang, ST
AU  - Shiao, SF
TI  - Temperature adaptation in Chrysomya megacephala and Chrysomya pinguis, two blow fly species of forensic significance
T2  - ENTOMOLOGIA EXPERIMENTALIS ET APPLICATA
LA  - English
KW  - competition
KW  - habitat differentiation
KW  - temperature effects
KW  - forensic entomology
KW  - Calliphoridae
KW  - Diptera
KW  - DIPTERA CALLIPHORIDAE
KW  - FABRICIUS DIPTERA
KW  - LUCILIA-SERICATA
KW  - BODY-SIZE
KW  - POSTMORTEM INTERVAL
KW  - RUFIFACIES DIPTERA
KW  - LARVAL DIAPAUSE
KW  - BLOWFLIES
KW  - CARRION
KW  - FLIES
AB  - Chrysomya megacephala (Fabricius) (Diptera: Calliphoridae) is a common and forensically important blow fly species in the Oriental region. However, in the higher mountain regions and on winter days, its habitats are occupied by a closely related species, Chrysomya pinguis (Walker). The resources that the two species employ to survive are very similar and competition between the species may be one of the factors that trigger differentiation of their behaviors. We conducted experiments to examine how these two closely related species may have adapted to different temperature regimes to avoid competition. Several adult and immature parameters were assessed, such as fecundity, locomotor ability, hatching ratio, larval survivorship, and eclosion ratio. Results indicate that species show specific diapause at high temperature (38 degrees C), larval survivorship of Ch. megacephala was significantly better than that of Ch. pinguis. Conversely, at low temperature (15 degrees C), adult locomotor ability was better for Ch. pinguis than for Ch. megacephala. The results indicate that the two species may have evolved different temperature adaptation strategies to avoid competition. In mixed-species larval rearing experiments, competition between Ch. pinguis and Ch. megacephala was observed: at higher temperature (30 degrees C), the immature performance index of Ch. megacephala was significantly increased when compared to that in single-species culture, whereas the index of Ch. pinguis was decreased. These data are consistent with the idea that tolerance for higher temperature conditions would allow larvae of Ch. megacephala to gain a competitive advantage over Ch. pinguis in certain habitats. These results may help to explain their current distribution in the environment and provide more biological information on these forensically important species.
AD  - Natl Taiwan Univ, Dept Entomol, Taipei 10764, TaiwanFU  - National Science Council, Taiwan [NSC99-2321-B-002-040, NSC101-2631-H-002-004, NSC101-2631-H-002-019]; Institute of Forensic Medicine, Ministry of Justice, Taiwan [IFM90-M04, IFM91-M02]
FX  - We thank David S. Haymer (University of Hawaii at Manoa) for reviewing the early version of this manuscript and offering valuable suggestions. This article was supported by the National Science Council, Taiwan (NSC99-2321-B-002-040, NSC101-2631-H-002-004, and NSC101-2631-H-002-019) and the Institute of Forensic Medicine, Ministry of Justice, Taiwan (IFM90-M04 and IFM91-M02).
PU  - WILEY-BLACKWELL
PI  - HOBOKEN
PA  - 111 RIVER ST, HOBOKEN 07030-5774, NJ USA
SN  - 0013-8703
SN  - 1570-7458
J9  - ENTOMOL EXP APPL
JI  - Entomol. Exp. Appl.
DA  - AUG
PY  - 2014
VL  - 152
IS  - 2
SP  - 100
EP  - 107
DO  - 10.1111/eea.12206
WE  - Science Citation Index Expanded (SCI-EXPANDED)AN  - WOS:000339663200002
N1  - Times Cited in Web of Science Core Collection:  7
Total Times Cited:  7
Cited Reference Count:  49
ER  -

TY  - JOUR
AU  - Matthews, G
AU  - Goulet, CT
AU  - Delhey, K
AU  - Chapple, DG
TI  - The effect of skin reflectance on thermal traits in a small heliothermic ectotherm
T2  - JOURNAL OF THERMAL BIOLOGY
LA  - English
KW  - Cooling rate
KW  - Heating rate
KW  - Preferred body temperature
KW  - Reflectance
KW  - Spectrometry
KW  - Sprint speed
KW  - Thermal optimum
KW  - Thermal physiology
KW  - POLYMORPHIC PYGMY GRASSHOPPERS
KW  - COLOR PATTERN POLYMORPHISM
KW  - LAMPROPHOLIS-DELICATA
KW  - BODY-SIZE
KW  - DROSOPHILA-MELANOGASTER
KW  - THAMNOPHIS-SIRTALIS
KW  - EASTERN AUSTRALIA
KW  - LOCAL ADAPTATION
KW  - COOLING RATES
KW  - EVOLUTION
AB  - Variation in colour patterning is prevalent among and within species. A number of theories have been proposed in explaining its evolution. Because solar radiation interacts with the pigmentation of the integument causing light to either be reflected or absorbed into the body, thermoregulation has been considered to be a primary selective agent, particularly among ectotherms. Accordingly, the colour-mediated thermoregulatory hypothesis states that darker individuals will heat faster and reach higher thermal equilibria while paler individuals will have the opposite traits. It was further predicted that dark colouration would promote slower cooling rates and higher thermal performance temperatures. To test these hypotheses we quantified the reflectance, selected body temperatures, performance optima, as well as heating and cooling rates of an ectothermic vertebrate, Lampropholis delicata. Our results indicated that colour had no influence on thermal physiology, as all thermal traits were uncorrelated with reflectance. We suggest that crypsis may instead be the stronger selective agent as it may have a more direct impact on fitness. Our study has improved our knowledge of the functional differences among individuals with different colour patterns, and the evolutionary significance of morphological variation within species. (C) 2016 Elsevier Ltd. All rights reserved.
AD  - Monash Univ, Sch Biol Sci, Clayton, Vic 3800, AustraliaFU  - ANZ Trustees Foundation - Holsworth Wildlife Research Endowment; Monash University Animal Ethics Committee [BSCI/2012/17, BSCI/2013/03]
FX  - We thank L Plenderleith for assistance during fieldwork and N. Deal, M. Michelangeli, and H. Kang for help with lizard captive husbandry. R. San Martin, I. Stewart, and P. Arnold provided access to the animal housing facility and construction of experimental equipment. The project was conducted in accordance with our Monash University Animal Ethics Committee approvals (BSCI/2012/17 and BSCI/2013/03), Associated Scientific Research Permits (Queensland: WISP12877513, WISP12160412; Victoria: 10006697, import permits 14330665, 14312742), and under special permission from the Brisbane City Council and Karawatha Forest Protection Society. Financial support was provided by the ANZ Trustees Foundation - Holsworth Wildlife Research Endowment.
PU  - PERGAMON-ELSEVIER SCIENCE LTD
PI  - OXFORD
PA  - THE BOULEVARD, LANGFORD LANE, KIDLINGTON, OXFORD OX5 1GB, ENGLAND
SN  - 0306-4565
J9  - J THERM BIOL
JI  - J. Therm. Biol.
DA  - AUG
PY  - 2016
VL  - 60
SP  - 109
EP  - 124
DO  - 10.1016/j.jtherbio.2016.06.013
WE  - Science Citation Index Expanded (SCI-EXPANDED)AN  - WOS:000382349700014
N1  - Times Cited in Web of Science Core Collection:  7
Total Times Cited:  7
Cited Reference Count:  53
ER  -

TY  - JOUR
AU  - Cooper, BS
AU  - Czarnoleski, M
AU  - Angilletta, MJ
TI  - Acclimation of thermal physiology in natural populations of Drosophila melanogaster : a test of an optimality model
T2  - JOURNAL OF EVOLUTIONARY BIOLOGY
LA  - English
KW  - acclimation
KW  - developmental plasticity
KW  - Drosophila melanogaster
KW  - fecundity
KW  - optimality theory
KW  - performance curve
KW  - reaction norm
KW  - temperature
KW  - thermal sensitivity
KW  - PHENOTYPIC PLASTICITY
KW  - BENEFICIAL ACCLIMATION
KW  - ENVIRONMENTAL TOLERANCE
KW  - LOCOMOTOR PERFORMANCE
KW  - REACTION NORMS
KW  - BODY-SIZE
KW  - TEMPERATURE
KW  - EVOLUTION
KW  - EXPRESSION
KW  - HYPOTHESIS
AB  - Many organisms modify their physiological functions by acclimating to changes in their environment. Recent studies of thermal physiology have been influenced by verbal models that fail to consider the selective advantage of acclimation and thus make no predictions about variation in acclimation capacity. We used a quantitative model of optimal plasticity to generate predictions about the capacity of Drosophila melanogaster to acclimate to developmental temperature. This model predicts that the ability to acclimate thermal sensitivity should evolve when temperature varies greatly among generations. Based on the model, we expected that flies from the highly seasonal environment of New Jersey would acclimate thermal sensitivity more than would flies from the less seasonal environment of Florida. When raised at constant and fluctuating temperatures, flies from these populations failed to adjust their thermal optima in the way predicted by the model, suggesting that current assumptions about functional and genetic constraints should be reconsidered.
AD  - Indiana Univ, Dept Biol, Bloomington, IN 47405 USAAD  - Jagiellonian Univ, Inst Environm Sci, Krakow, PolandFU  - Fulbright and Kosciuszko Foundations; Indiana Academy of Science [PAC030]; National Science Foundation [IOS 0616344]
FX  - We especially thank Rae Cooper for her invaluable contributions throughout this experiment and Ray Huey for comments that improved our manuscript. We also thank Jon Storm for his help in the field and Amy Angilletta, Isaiah Jernberg, Jeff Tharp and Angela Hatfield for their help in the lab. David Piper directed us to weather data for our sites, Mike Sears provided comments on our computer program, and Charles Amlaner granted us access to his incubators. MC was supported by fellowships from the Fulbright and Kosciuszko Foundations. The research was supported by grants from the Indiana Academy of Science (PAC030) and the National Science Foundation (IOS 0616344).
PU  - WILEY
PI  - HOBOKEN
PA  - 111 RIVER ST, HOBOKEN 07030-5774, NJ USA
SN  - 1010-061X
SN  - 1420-9101
J9  - J EVOLUTION BIOL
JI  - J. Evol. Biol.
DA  - NOV
PY  - 2010
VL  - 23
IS  - 11
SP  - 2346
EP  - 2355
DO  - 10.1111/j.1420-9101.2010.02095.x
WE  - Science Citation Index Expanded (SCI-EXPANDED)AN  - WOS:000283374200007
N1  - Times Cited in Web of Science Core Collection:  39
Total Times Cited:  39
Cited Reference Count:  60
ER  -

TY  - JOUR
AU  - Day, PB
AU  - Stuart-Smith, RD
AU  - Edgar, GJ
AU  - Bates, AE
TI  - Species' thermal ranges predict changes in reef fish community structure during 8 years of extreme temperature variation
T2  - DIVERSITY AND DISTRIBUTIONS
LA  - English
KW  - functional traits
KW  - ocean climate
KW  - resilience
KW  - Species Temperature Index
KW  - thermal niche
KW  - warming
KW  - CLIMATE-CHANGE
KW  - EVOLUTIONARY RESPONSES
KW  - ROTTNEST ISLAND
KW  - MARINE
KW  - SHIFTS
KW  - ABUNDANCE
KW  - TRAITS
KW  - RECRUITMENT
KW  - ORGANISMS
KW  - PREDATION
AB  - Aim: To assess whether observed thermal bounds in species' latitudinal ranges (i.e., realized thermal niches) can be used to predict patterns of occurrence and abundance changes observed during a marine heatwave, relative to other important life history and functional traits.
   Location: Rottnest Island, Western Australia.
   Methods: A time series of standardized quantitative surveys of reef fishes spanning 8years of pronounced ocean temperature change is used to test whether accurate predictions on shifts in species occupancy and abundance are possible using species traits.
   Results: Species-level responses in occurrence and abundance were closely related to the mid-point of their realized thermal niche, more so than body size, range size or trophic level. Most of the species that disappeared from survey counts during the heatwave were characterized by geographic ranges that did not extend to latitudes with temperatures equivalent to the ocean temperature peak during the heatwave. We thus find support for the hypothesis that current distribution limits are set directly or indirectly by temperature and are highly responsive to ocean temperature variability.
   Main conclusions: Our study shows that reef fish community structure can change very quickly when exposed to extreme thermal anomalies, in directions predicted from the realized thermal niche of the species present. Such predictions can thus identify species that will be most responsive to changing ocean climate. Continued warming, coupled with periodic extreme heat events, may lead to the loss of ecosystem services and ecological functions, as mobile species relocate to more hospitable climes, while less mobile species may head towards extinction.
AD  - Univ Tasmania, Inst Marine & Antarctic Studies, Hobart, Tas, AustraliaAD  - Mem Univ, Ocean Sci Ctr, Logy Bay, NF, CanadaFU  - Department for Planning and Infrastructure, Perth, Western Australia Coastwest Grant [201291]; Natural Resource Management Program, State NRM Program Grants, Government of Western Australia [14126]
FX  - Department for Planning and Infrastructure, Perth 6000, Western Australia Coastwest Grant, Grant/Award Number: 201291; Natural Resource Management Program, State NRM Program Grants, Government of Western Australia, Grant/Award Number: 14126
PU  - WILEY
PI  - HOBOKEN
PA  - 111 RIVER ST, HOBOKEN 07030-5774, NJ USA
SN  - 1366-9516
SN  - 1472-4642
J9  - DIVERS DISTRIB
JI  - Divers. Distrib.
DA  - AUG
PY  - 2018
VL  - 24
IS  - 8
SP  - 1036
EP  - 1046
DO  - 10.1111/ddi.12753
WE  - Science Citation Index Expanded (SCI-EXPANDED)AN  - WOS:000438200700001
N1  - Times Cited in Web of Science Core Collection:  34
Total Times Cited:  34
Cited Reference Count:  58
ER  -

TY  - JOUR
AU  - Yadav, S
AU  - Stow, AJ
AU  - Dudaniec, RY
TI  - Microgeographical adaptation corresponds to elevational distributions of congeneric montane grasshoppers
T2  - MOLECULAR ECOLOGY
LA  - English
KW  - contemporary evolution
KW  - insects
KW  - Kosciuscola
KW  - landscape genomics
KW  - local adaptation
KW  - natural selection
KW  - LOCAL ADAPTATION
KW  - RANGE SHIFTS
KW  - ENVIRONMENTAL GRADIENTS
KW  - GEOGRAPHIC-VARIATION
KW  - AUSTRALIAN ALPS
KW  - CLIMATE-CHANGE
KW  - BODY-SIZE
KW  - R PACKAGE
KW  - LANDSCAPE
KW  - DIVERGENCE
AB  - Local adaptation can occur at small spatial scales relative to the dispersal capacity of species. Alpine ecosystems have sharp environmental clines that offer an opportunity to investigate the effects of fine-scale shifts in species' niche breadth on adaptive genetic processes. Here we examine two grasshopper species endemic to the Australian Alps (Kosciuscola spp.) that differ in elevational niche breadth: one broader, K. usitatus (1400-2200 m), and one narrower, K. tristis (1600-2000 m). We examine signatures of selection with respect to environmental and morphological variables in two mountain regions using F-ST outlier tests and environmental association analyses (EAAs) applied to single nucleotide polymorphism (SNP) data (K. usitatus: 9017 SNPs, n = 130; K. tristis: 7363 SNPs, n = 135). Stronger genetic structure was found in the more narrowly distributed K. tristis, which showed almost twice the number of SNPs under putative selection (10.8%) compared with K. usitatus (5.3%). When examining SNPs in common across species (n = 3058), 260 SNPs (8.5%) were outliers shared across species, and these were mostly associated with elevation, a proxy for temperature, suggesting parallel adaptive processes in response to climatic drivers. Additive polygenic scores (an estimate of the cumulative signal of selection across all candidate loci) were nonlinearly and positively correlated with elevation in both species. However, a steeper correlation in K. tristis indicated a stronger signal of spatially varying selection towards higher elevations. Our study illustrates that the niche breadth of co-occurring and related species distributed along the same environmental cline is associated with differences in patterns of microgeographical adaptation.
AD  - Macquarie Univ, Dept Biol Sci, N Ryde, NSW 2109, AustraliaFU  - Holsworth Wildlife Research Endowment; Macquarie University; Orthopterists' Society; Linnean Society of NSW
FX  - Holsworth Wildlife Research Endowment; Macquarie University; Orthopterists' Society; Linnean Society of NSW
PU  - WILEY
PI  - HOBOKEN
PA  - 111 RIVER ST, HOBOKEN 07030-5774, NJ USA
SN  - 0962-1083
SN  - 1365-294X
J9  - MOL ECOL
JI  - Mol. Ecol.
DA  - JAN
PY  - 2021
VL  - 30
IS  - 2
SP  - 481
EP  - 498
DO  - 10.1111/mec.15739
C6  - DEC 2020
WE  - Science Citation Index Expanded (SCI-EXPANDED)AN  - WOS:000596883400001
N1  - Times Cited in Web of Science Core Collection:  9
Total Times Cited:  9
Cited Reference Count:  115
ER  -

TY  - JOUR
AU  - Poortvliet, M
AU  - Olsen, JL
AU  - Croll, DA
AU  - Bernardi, G
AU  - Newton, K
AU  - Kollias, S
AU  - O'Sullivan, J
AU  - Fernando, D
AU  - Stevens, G
AU  - Magana, FG
AU  - Seret, B
AU  - Wintner, S
AU  - Hoarau, G
TI  - A dated molecular phylogeny of manta and devil rays (Mobulidae) based on mitogenome and nuclear sequences
T2  - MOLECULAR PHYLOGENETICS AND EVOLUTION
LA  - English
KW  - Mitogenome
KW  - Phylogenetics
KW  - Molecular clock
KW  - Divergence times
KW  - Manta
KW  - Mobula
KW  - COMPLETE MITOCHONDRIAL GENOME
KW  - FRESH-WATER STINGRAYS
KW  - GLOBAL PHYLOGEOGRAPHY
KW  - METABOLIC-RATE
KW  - THERMAL DOMES
KW  - LIFE-HISTORY
KW  - ORCINUS-ORCA
KW  - EAST-COAST
KW  - GENE TREES
KW  - BODY-SIZE
AB  - Manta and devil rays are an iconic group of globally distributed pelagic filter feeders, yet their evolutionary history remains enigmatic. We employed next generation sequencing of mitogenomes for nine of the II recognized species and two outgroups; as well as additional Sanger sequencing of two mitochondria] and two nuclear genes in an extended taxon sampling set. Analysis of the mitogenome coding regions in a Maximum Likelihood and Bayesian framework provided a well-resolved phylogeny. The deepest divergences distinguished three clades with high support, one containing Manta birostris, Manta alfredi, Mobuki tarapacana, Mobula japanica and Mobula mobular; one containing Mobula kuhlii, Mobula eregoodootenkee and Mobula thurstoni; and one containing Mobula munkiana, Mobula hypostoma and Mobula rochebrunei. Mobula remains paraphyletic with the inclusion of Manta, a result that is in agreement with previous studies based on molecular and morphological data. A fossil-calibrated Bayesian random local clock analysis suggests that mobulids diverged from Rhinoptera around 30 Mya. Subsequent divergences are characterized by long internodes followed by short bursts of speciation extending from an initial episode of divergence in the Early and Middle Miocene (19-17 Mya) to a second episode during the Pliocene and Pleistocene (3.6 Mya - recent). Estimates of divergence dates overlap significantly with periods of global warming, during which upwelling intensity - and related high primary productivity in upwelling regions decreased markedly. These periods are hypothesized to have led to fragmentation and isolation of feeding regions leading to possible regional extinctions, as well as the promotion of allopatric speciation. The closely shared evolutionary history of mobulids in combination with ongoing threats from fisheries and climate change effects on upwelling and food supply, reinforces the case for greater protection of this charismatic family of pelagic filter feeders. (C) 2014 Elsevier Inc. All rights reserved.
AD  - Univ Groningen, Ctr Ecol & Evolutionary Studies, Dept Marine Benth Ecol & Evolut, NL-9747 AG Groningen, NetherlandsAD  - Univ Calif Santa Cruz, Dept Ecol & Evolutionary Biol, Santa Cruz, CA 95060 USAAD  - Univ Nordland, Fac Biosci & Aquaculture, N-8049 Bodo, NorwayAD  - Monterey Bay Aquarium, Monterey, CA 93940 USAAD  - Linnaeus Univ, Dept Biol & Environm Sci, SE-39182 Kalmar, SwedenAD  - Manta Trust, Dorchester DT2 0NT, Dorset, EnglandAD  - Inst Politecn Nacl, Ctr Interdisciplinario Ciencias Marinas, La Paz 23096, Baja California, MexicoAD  - Museum Natl Hist Nat, Dept Systemat & Evolut, F-75231 Paris 05, FranceAD  - KwaZulu Natal Sharks Board, ZA-4320 Umhlanga Rocks, South AfricaAD  - Univ KwaZulu Natal, Biomed Resource Unit, ZA-3600 Westville, South AfricaFU  - University of Groningen, Top-Master-Evolutionary Biology Program; Monterey Bay Aquarium; Marine Benthic Ecology and Evolution Dept., CEES, University of Groningen; Ecology and Evolutionary Biology Dept., UC Santa Cruz; Marine Ecology Unit, Universitet i Nordland